output/compact_ny_2025/electrical_constant_total_diagnostic/S6_2025_LOW_TOTAL_EAST_PUBLIC/audit_branch.csv
branch_row,device_key,from_bus,to_bus,online,rate_a_mva,from_mva,to_mva,from_overload_mva,to_overload_mva,angle_deg,angle_min_deg,angle_max_deg,angle_below_min_deg,angle_above_max_deg,violated,invalid_limit_bounds,stored_terminal_flow_error_mva,stored_terminal_flow_inconsistent
1,NPCC_S7:BRANCH_ROW:33,37,38,1,2500,103.345799063672,110.473913129476,0,0,-0.976667376971603,-360,360,0,0,0,0,9.9475983006414e-14,0
2,NPCC_S7:BRANCH_ROW:34,37,39,1,3388,507.62043206993,507.391118988323,0,0,2.13907934684058,-360,360,0,0,0,0,2.85833423923672e-12,0
3,NPCC_S7:BRANCH_ROW:35,37,40,1,2500,120.447684604905,118.749728540542,0,0,1.03543357282334,-360,360,0,0,0,0,2.5618982671915e-14,0
4,NPCC_S7:BRANCH_ROW:36,37,43,0,3745.98196383403,0,0,0,0,-1.24909020057519,-360,360,0,0,0,0,0,0
5,NPCC_S7:BRANCH_ROW:37,38,69,1,1216,73.126356072245,138.558046608695,0,0,-1.22187007551425,-360,360,0,0,0,0,3.57820178806326e-13,0
6,NPCC_S7:BRANCH_ROW:38,39,73,1,2500,406.83982167522,403.605736365036,0,0,4.32444116504433,-360,360,0,0,0,0,7.81758479642416e-13,0
7,NPCC_S7:BRANCH_ROW:39,39,73,1,2500,406.83982167522,403.605736365036,0,0,4.32444116504433,-360,360,0,0,0,0,7.81758479642416e-13,0
8,NPCC_S7:BRANCH_ROW:40,40,44,0,1328.76341358641,0,0,0,0,-0.394222908937032,-360,360,0,0,0,0,0,0
9,NPCC_S7:BRANCH_ROW:41,41,42,1,2500,491.726660835295,501.644776081424,0,0,-1.28831382469896,-360,360,0,0,0,0,0,0
10,NPCC_S7:BRANCH_ROW:42,41,45,1,314.254622579561,45.5299354178649,49.5481723827748,0,0,3.29294303799383,-360,360,0,0,0,0,7.105427357601e-15,0
11,NPCC_S7:BRANCH_ROW:43,43,44,1,2500,289.93576228811,291.680809832643,0,0,1.8903008644615,-360,360,0,0,0,0,5.72857867687912e-14,0
12,NPCC_S7:BRANCH_ROW:44,43,50,1,3463.47124449306,213.132158838777,233.197380937254,0,0,-1.49892154190321,-360,360,0,0,0,0,5.6843418860808e-14,0
13,NPCC_S7:BRANCH_ROW:45,43,50,1,3463.47124449306,213.132158838777,233.197380937254,0,0,-1.49892154190321,-360,360,0,0,0,0,5.6843418860808e-14,0
14,NPCC_S7:BRANCH_ROW:46,44,45,1,2500,356.690311901942,353.752449619769,0,0,4.35881900460496,-360,360,0,0,0,0,7.105427357601e-15,0
15,NPCC_S7:BRANCH_ROW:47,44,48,0,6896.14528055676,0,0,0,0,6.37698401248928,-360,360,0,0,0,0,0,0
16,NPCC_S7:BRANCH_ROW:48,45,46,1,2040.85471944324,5.72408830081582,19.4035589901022,0,0,-1.2897146246403,-360,360,0,0,0,0,3.58036167304945e-15,0
17,NPCC_S7:BRANCH_ROW:49,45,51,1,489.56239109923,42.4304090823163,44.7462381728616,0,0,-5.27279808270412,-360,360,0,0,0,0,8.96136374395655e-14,0
18,NPCC_S7:BRANCH_ROW:50,45,71,1,166.495119914644,25.452888013167,30.2294729183933,0,0,-9.85596268037734,-360,360,0,0,0,0,5.02429586778808e-15,0
19,NPCC_S7:BRANCH_ROW:51,46,47,1,2500,46.5136160314072,48.3153628142625,0,0,-4.17192848116846,-360,360,0,0,0,0,1.06581410364015e-14,0
20,NPCC_S7:BRANCH_ROW:52,46,49,1,2500,21.6689577159303,20.6074238833605,0,0,8.61673007096238,-360,360,0,0,0,0,3.5596458096435e-15,0
21,NPCC_S7:BRANCH_ROW:53,47,48,1,2500,330.455332958435,338.990809005402,0,0,7.47980811369309,-360,360,0,0,0,0,0,0
22,NPCC_S7:BRANCH_ROW:54,50,51,1,2500,306.292815570135,325.070463822318,0,0,2.47524332826555,-360,360,0,0,0,0,2.8421709430404e-14,0
23,NPCC_S7:BRANCH_ROW:55,50,52,1,2858.06690137886,648.654361270644,634.925019445974,0,0,8.42556859735278,-360,360,0,0,0,0,5.6843418860808e-14,0
24,NPCC_S7:BRANCH_ROW:56,51,53,1,290.964700741948,111.924205029264,105.837123419496,0,0,14.2623878371648,-360,360,0,0,0,0,6.0291550413457e-14,0
25,NPCC_S7:BRANCH_ROW:57,51,72,1,2500,312.499689173072,316.663927345324,0,0,-3.62681344940125,-360,360,0,0,0,0,7.105427357601e-13,0
26,NPCC_S7:BRANCH_ROW:58,52,53,1,2500,389.96588888324,412.155864864719,0,0,8.31206256807758,-360,360,0,0,0,0,5.6843418860808e-14,0
27,NPCC_S7:BRANCH_ROW:59,53,55,1,997.983883346124,114.716005865357,126.103084800752,0,0,-3.27076909925139,-360,360,0,0,0,0,1.58882185807825e-14,0
28,NPCC_S7:BRANCH_ROW:60,53,65,1,785.968397879188,93.6869917716128,94.2267149790721,0,0,1.7188945527317,-360,360,0,0,0,0,1.46482137552712e-14,0
29,NPCC_S7:BRANCH_ROW:61,54,56,1,789.941803,52.2509437052446,55.2442944236557,0,0,-0.337219199725475,-360,360,0,0,0,0,1.61446896124409e-12,0
30,NPCC_S7:BRANCH_ROW:62,54,62,1,789.941803,49.7340348967268,58.3172739829791,0,0,1.0766243317824,-360,360,0,0,0,0,2.0021677192411e-13,0
31,NPCC_S7:BRANCH_ROW:65,55,57,1,789.941803,98.1850967641662,100.533006199652,0,0,1.60539784476763,-360,360,0,0,0,0,1.58882185807825e-14,0
32,NPCC_S7:BRANCH_ROW:66,55,59,1,789.941803,68.3179183865958,69.2274609325017,0,0,1.20732338472841,-360,360,0,0,0,0,1.4210854715202e-14,0
33,NPCC_S7:BRANCH_ROW:67,56,58,1,2500,387.940205868097,377.6789900573,0,0,2.03614024922296,-360,360,0,0,0,0,8.03887338846093e-14,0
34,NPCC_S7:BRANCH_ROW:68,57,59,1,2500,33.0997683228189,31.4952550505374,0,0,-0.398074460039217,-360,360,0,0,0,0,3.5527136788005e-15,0
35,NPCC_S7:BRANCH_ROW:69,58,60,1,2500,185.123062917371,194.513975232681,0,0,-0.81835739637733,-360,360,0,0,0,0,4.5774892484984e-13,0
36,NPCC_S7:BRANCH_ROW:70,58,62,1,2500,81.0710953112506,80.1664910617574,0,0,-0.62229671771509,-360,360,0,0,0,0,7.39954442581298e-13,0
37,NPCC_S7:BRANCH_ROW:71,59,61,1,2500,88.7544070743757,96.179695133886,0,0,-1.08967591482097,-360,360,0,0,0,0,2.1316282072803e-14,0
38,NPCC_S7:BRANCH_ROW:73,62,63,1,620,31.0371315825395,33.6629558517746,0,0,-1.53727655197361,-360,360,0,0,0,0,1.74227918637928e-13,0
39,NPCC_S7:BRANCH_ROW:74,63,64,1,2500,113.193570032933,116.227475821198,0,0,2.67155292411898,-360,360,0,0,0,0,4.49386683977818e-14,0
40,NPCC_S7:BRANCH_ROW:75,63,67,1,2500,146.71458896004,146.862915590988,0,0,-8.22217556367988,-360,360,0,0,0,0,0,0
41,NPCC_S7:BRANCH_ROW:76,64,65,1,2500,154.449920942014,163.577672446278,0,0,5.02369096875392,-360,360,0,0,0,0,5.123796534383e-14,0
42,NPCC_S7:BRANCH_ROW:77,64,68,1,2500,85.1158849619408,84.8353675271768,0,0,-12.0841488938096,-360,360,0,0,0,0,1.00485917355762e-14,0
43,NPCC_S7:BRANCH_ROW:78,66,67,1,2500,58.1756260397045,57.7011539927858,0,0,0.735751508851325,-360,360,0,0,0,0,1.4210854715202e-14,0
44,NPCC_S7:BRANCH_ROW:79,66,69,1,2500,79.1753482320944,73.2973558298532,0,0,-1.25388046276542,-360,360,0,0,0,0,6.73864660443165e-13,0
45,NPCC_S7:BRANCH_ROW:81,67,68,1,2500,73.5652036478709,70.9185480256603,0,0,-1.19042040601076,-360,360,0,0,0,0,1.58882185807825e-14,0
46,NPCC_S7:BRANCH_ROW:82,67,70,1,2500,65.3024010362306,68.8312634810542,0,0,-2.61310439809484,-360,360,0,0,0,0,1.00485917355762e-14,0
47,NPCC_S7:BRANCH_ROW:84,68,71,1,2500,19.2122263729815,22.0727229126543,0,0,-3.4566071250062,-360,360,0,0,0,0,3.97205464519564e-15,0
48,NPCC_S7:BRANCH_ROW:85,69,71,1,2500,163.890938962444,155.494994146918,0,0,-2.65739555940022,-360,360,0,0,0,0,8.64412545851425e-14,0
49,NPCC_S7:BRANCH_ROW:86,70,71,1,2500,68.8312634810543,67.5097979107899,0,0,-2.03392313292213,-360,360,0,0,0,0,2.24693341988909e-14,0
50,NPCC_S7:BRANCH_ROW:87,71,72,1,2500,154.133453047752,149.389981740256,0,0,0.956351148271976,-360,360,0,0,0,0,7.7917093930542e-13,0
51,NPCC_S7:BRANCH_ROW:88,73,74,0,1599.84337349398,0,0,0,0,4.44480688091068,-360,360,0,0,0,0,0,0
52,NPCC_S7:BRANCH_ROW:89,73,74,0,1599.84337349398,0,0,0,0,4.44480688091068,-360,360,0,0,0,0,0,0
53,NPCC_S7:BRANCH_ROW:90,74,77,1,2500,164.424089001864,165.397625198415,0,0,-0.423528424486172,-360,360,0,0,0,0,3.12998914175489e-12,0
54,NPCC_S7:BRANCH_ROW:91,74,78,1,2889.50495049505,533.605100687747,532.24757542892,0,0,1.43475698423072,-360,360,0,0,0,0,2.80078935455778e-12,0
55,NPCC_S7:BRANCH_ROW:92,74,78,1,2889.50495049505,533.605100687747,532.24757542892,0,0,1.43475698423072,-360,360,0,0,0,0,2.80078935455778e-12,0
56,NPCC_S7:BRANCH_ROW:94,76,77,0,4611.31325301205,0,0,0,0,0.788561264368891,-360,360,0,0,0,0,0,0
57,NPCC_S7:BRANCH_ROW:95,78,79,0,908.848753535103,0,0,0,0,2.54186406893895,-360,360,0,0,0,0,0,0
58,NPCC_S7:BRANCH_ROW:96,78,80,1,984.654731457801,236.71207386591,209.77595862613,0,0,2.3355087204859,-360,360,0,0,0,0,1.53055589383215e-13,0
59,NPCC_S7:BRANCH_ROW:97,78,81,0,503.818330764024,0,0,0,0,-1.14742987150106,-360,360,0,0,0,0,0,0
60,NPCC_S7:BRANCH_ROW:98,78,82,1,451.473569126203,306.404610596892,282.332486945503,0,0,3.58980304466942,-360,360,0,0,0,0,3.81317245938781e-13,0
61,NPCC_S7:BRANCH_ROW:219,40,41,1,2500,222.690944593862,229.675570543867,0,0,0.671653057674095,-360,360,0,0,0,0,4.2632564145606e-14,0
62,NPCC_S7:BRANCH_ROW:220,49,48,1,2500,51.0498025653256,52.3684235487634,0,0,-5.30885043843775,-360,360,0,0,0,0,1.77635683940025e-15,0
63,NPCC_S7:BRANCH_ROW:222,54,52,1,4583.01611665388,267.647502514351,257.510168827137,0,0,-2.7963654481276,-360,360,0,0,0,0,7.15640357612652e-13,0
64,NPCC_S7:BRANCH_ROW:223,54,55,1,2500,924.398824604508,821.586108616469,0,0,2.24492802069859,-360,360,0,0,0,0,3.20800405905231e-12,0
65,NPCC_S7:BRANCH_ROW:224,56,57,1,2500,76.6664636203184,70.6239759221194,0,0,4.18754506519169,-360,360,0,0,0,0,2.24693341988909e-14,0
66,NPCC_S7:BRANCH_ROW:225,58,59,1,2500,327.18881252885,323.560004546314,0,0,1.75333035592951,-360,360,0,0,0,0,3.01122612717351e-13,0
67,NPCC_S7:BRANCH_ROW:226,60,61,1,2500,283.568437794782,346.583508853391,0,0,1.48201183748587,-360,360,0,0,0,0,2.36195349694337e-13,0
68,NPCC_S7:BRANCH_ROW:227,75,76,1,2500,16.964109626715,16.9644248696397,0,0,-0.0751418863200293,-360,360,0,0,0,0,3.49204608247919e-13,0
69,NPCC_S7:BRANCH_ROW:234,38,39,1,1216,271.440644969997,269.993228201514,0,0,3.11574672381219,-360,360,0,0,0,0,7.05730275048717e-13,0
70,NPCC_S7:BRANCH_ROW:235,73,9002,0,2432,0,0,0,0,2.3254832376274,-360,360,0,0,0,0,0,0
71,NPCC_S7:BRANCH_ROW:236,9002,74,0,2432,0,0,0,0,2.11932364328328,-360,360,0,0,0,0,0,0
72,NPCC_S7:BRANCH_ROW:237,74,78,1,866.851485148515,160.803010126807,160.326187645605,0,0,1.43475698423072,-360,360,0,0,0,0,1.40437832538008e-12,0
73,NPCC_S7:BRANCH_ROW:238,77,78,1,650.138613861386,155.441059334497,155.058866270512,0,0,1.85828540871689,-360,360,0,0,0,0,1.75565264644521e-13,0
74,NPCC_S7:BRANCH_ROW:239,78,81,0,1158.78216075726,0,0,0,0,-1.14742987150106,-360,360,0,0,0,0,0,0
75,NPCC_S7:BRANCH_ROW:240,78,79,0,1390.53859290871,0,0,0,0,2.54186406893895,-360,360,0,0,0,0,0,0
76,NPCC_S7:BRANCH_ROW:241,78,82,1,1390.53859290871,942.156187381801,868.137391785368,0,0,3.58980304466942,-360,360,0,0,0,0,1.47792889038101e-12,0
77,NPCC_S7:BRANCH_ROW:242,78,9003,1,2865.3452685422,305.435965209895,325.014904251277,0,0,-0.134026775453147,-360,360,0,0,0,0,1.59228568599713e-12,0
78,NPCC_S7:BRANCH_ROW:243,9003,80,1,5000,395.144467661232,418.204135994484,0,0,2.46953549593905,-360,360,0,0,0,0,1.52526898375512e-12,0
79,NPCC_S7:BRANCH_ROW:244,81,80,1,2950,396.514671800897,436.522902613072,0,0,3.48293859198697,-360,360,0,0,0,0,8.53124846560356e-13,0
80,NPCC_S7:BRANCH_ROW:245,39,9001,1,5000,132.409085441318,132.040808628575,0,0,2.68533026769216,-360,360,0,0,0,0,3.55405679477542e-13,0
81,NPCC_S7:BRANCH_ROW:246,9001,73,0,5000,0,0,0,0,1.63911089735217,-360,360,0,0,0,0,0,0
82,PERFORM2019:AC:651:858:1,73,858,1,1216,317.775818236659,317.307726116395,0,0,0.988553115345552,-360,360,0,0,0,0,2.87298691207155e-13,0
83,PERFORM2019:AC:651:858:2,73,858,1,1216,317.77583071345,317.307725469255,0,0,0.988553115345552,-360,360,0,0,0,0,5.69686147618653e-14,0
84,PERFORM2019:AC:651:902:1,73,9002,1,1216,318.395787082,317.614440231461,0,0,2.3254832376274,-360,360,0,0,0,0,1.70862998862888e-13,0
85,PERFORM2019:AC:651:902:2,73,9002,1,1216,318.395799161889,317.614455670216,0,0,2.3254832376274,-360,360,0,0,0,0,2.27763653791027e-13,0
86,PERFORM2019:AC:858:902:1,858,9002,1,1216,317.307726440243,316.977097026059,0,0,1.33693012228184,-360,360,0,0,0,0,2.87699982245605e-13,0
87,PERFORM2019:AC:858:902:2,858,9002,1,1216,317.307725145963,316.977066530671,0,0,1.33693012228184,-360,360,0,0,0,0,3.42905892467049e-13,0
88,PERFORM2019:AC:897:902:1,9002,74,1,1216,634.591340883167,632.818067090529,0,0,2.11932364328328,-360,360,0,0,0,0,2.98509988510983e-12,0
89,PERFORM2019:AC:897:902:2,9002,74,1,1216,634.591693779543,632.817880772253,0,0,2.11932364328328,-360,360,0,0,0,0,2.99201775684751e-12,0
90,PERFORM2019:AC:774:1519:1,76,774,1,1216,162.732397055485,161.728768243269,0,0,0.267259521602691,-360,360,0,0,0,0,1.38306007336228e-12,0
91,PERFORM2019:AC:774:900:1,774,77,1,1725,161.728768243267,160.408237498622,0,0,0.5213017427662,-360,360,0,0,0,0,2.86428933843956e-14,0
92,PERFORM2019:AC:900:1519:1,76,77,1,1725,161.350106725749,158.991613219033,0,0,0.788561264368891,-360,360,0,0,0,0,3.4576501834057e-13,0
93,NY2025:CEEC:351,43,9101,1,2000,131.890965149026,77.5831015331756,0,0,0.925282233975803,-360,360,0,0,0,0,4.2632564145606e-14,0
94,NY2025:CEEC:352,43,9101,1,2000,131.890965149026,77.5831015331756,0,0,0.925282233975803,-360,360,0,0,0,0,4.2632564145606e-14,0
95,NY2025:CEEC:361,9101,37,1,2000,79.1603832400091,61.6332380854506,0,0,0.323807966599383,-360,360,0,0,0,0,7.8482010346102e-14,0
96,NY2025:CEEC:362,9101,37,1,2000,79.1603832400091,61.6332380854506,0,0,0.323807966599383,-360,360,0,0,0,0,7.8482010346102e-14,0
97,NY2025:CEEC:14,43,9102,1,2000,126.545788183211,68.3469004136015,0,0,0.927705360424464,-360,360,0,0,0,0,7.18527009565099e-13,0
98,NY2025:CEEC:371,9101,9102,1,2000,7.18689241264513,12.0729425420193,0,0,0.00242312644866094,-360,360,0,0,0,0,5.7125944531531e-12,0
99,NY2025:CEEC:LEGACY230:1,40,9103,1,1328.76341358641,105.922994280012,123.076574392463,0,0,-0.600574647573458,-360,360,0,0,0,0,8.64412545851425e-14,0
100,NY2025:CEEC:LEGACY230:2,9103,44,1,1328.76341358641,88.5256177849926,104.888497606662,0,0,0.206351738636426,-360,360,0,0,0,0,1.46482137552712e-14,0
101,NY2025:CEEC:GORDON_XFMR,9102,9103,1,1200,63.0310072250087,63.5798879982536,0,0,0.756243765400605,-360,360,0,0,0,0,7.18913361645087e-13,0
102,NY2025:NYES:1,9001,9104,1,1800,132.040808628574,133.060180752354,0,0,0.670517632750216,-360,360,0,0,0,0,2.8421709430404e-14,0
103,NY2025:NYES:2,9104,73,1,1800,133.060180752355,139.967774884721,0,0,0.968593264601957,-360,360,0,0,0,0,1.13908665908592e-13,0
104,NY2025:SMART_PATH:1,1220,48,1,575,63.4028802970497,77.6337524638742,0,0,3.99528330189146,-360,360,0,0,0,0,1.58882185807825e-14,0
105,NY2025:SMART_PATH:2,1220,48,1,575,63.3829002321713,77.6179986936602,0,0,3.99528330189146,-360,360,0,0,0,0,1.46482137552712e-14,0
106,NY2025:SMART_PATH:3,1220,44,1,453,63.3928898517485,61.4213547774743,0,0,-2.38170071059783,-360,360,0,0,0,0,1.42177919158667e-14,0
107,NY2025:SMART_PATH:4,1220,44,1,453,63.3928898517485,61.4213547774743,0,0,-2.38170071059783,-360,360,0,0,0,0,1.42177919158667e-14,0
108,NY2025:NYC:DELIVERY:95:1,78,1130,1,908.848753535103,336.862924434834,342.450334854242,0,0,1.2119407483618,-360,360,0,0,0,0,3.51557130126508e-13,0
109,NY2025:NYC:DELIVERY:95:2,1130,79,1,908.848753535103,369.320757358012,375.432329528305,0,0,1.32992332057715,-360,360,0,0,0,0,7.65277946916073e-13,0
110,NY2025:NYC:DELIVERY:240:1,78,557,1,1390.53859290871,516.647699001536,525.243199245036,0,0,1.21751835939387,-360,360,0,0,0,0,7.58385798697323e-13,0
111,NY2025:NYC:DELIVERY:240:2,557,79,1,1390.53859290871,562.050704147217,571.323238282169,0,0,1.32434570954508,-360,360,0,0,0,0,6.65335159665098e-13,0
112,NY2025:NYC:DELIVERY:97:1,78,1129,1,503.818330764024,104.815808265718,106.064355752977,0,0,-0.534509056228375,-360,360,0,0,0,0,1.75778565063254e-13,0
113,NY2025:NYC:DELIVERY:97:2,1129,81,1,503.818330764024,108.58025156808,109.768042836362,0,0,-0.612920815272689,-360,360,0,0,0,0,1.43255001896168e-12,0
114,NY2025:NYC:DELIVERY:239:1,78,1129,1,1158.78216075726,240.683074544505,243.550049029753,0,0,-0.534509056228375,-360,360,0,0,0,0,2.8421709430404e-14,0
115,NY2025:NYC:DELIVERY:239:2,1129,81,1,1158.78216075726,249.327169390051,252.054632537999,0,0,-0.612920815272689,-360,360,0,0,0,0,5.6843418860808e-14,0
116,NY2025:NYC:RAINEY_XFMR,1130,1529,1,1500,36.080460102922,36.1228776799274,0,0,-0.677844946463223,-360,360,0,0,0,0,8.72813253893369e-14,0
117,NY2025:NYC:ASTORIA_XFMR,557,1493,1,1500,51.5356856837013,51.6088170435733,0,0,-0.743926733245582,-360,360,0,0,0,0,0,0
118,NY2025:NYC:CORONA_BASELINE,1493,601,1,2248,51.6088170435734,51.9126292233485,0,0,-0.0300020797919434,-360,360,0,0,0,0,1.4238583238574e-14,0
119,NY2025:RCC_QUEENS:CABLE,1529,601,1,300,36.1228776799261,36.0015696205755,0,0,-0.0905062555422322,-360,360,0,0,0,0,7.1250221649316e-13,0
120,NY2025:RCC_BROOKLYN:PAR,1129,9112,1,300,43.1096423853502,43.3917227484674,0,0,0.65920343492512,-360,360,0,0,0,0,7.94410929039127e-15,0
121,NY2025:RCC_BROOKLYN:CABLE,9112,9111,1,300,43.3917227484578,43.0961560376104,0,0,0.0172405689164101,-360,360,0,0,0,0,2.33183032821934e-11,0
122,NY2025:RCC_STATEN:PAR,81,9113,1,300,51.6003130357163,51.5086000819274,0,0,0.885321248237162,-360,360,0,0,0,0,7.34495092168031e-13,0
123,NY2025:RCC_STATEN:CABLE,9113,9114,1,300,51.5086000819276,51.8976494395024,0,0,0.195473711670372,-360,360,0,0,0,0,1.06015172786945e-12,0
124,NY2025:NYC:GREENWOOD_CORONA,9111,601,1,600,88.2207405546051,87.713698844618,0,0,0.301654598743191,-360,360,0,0,0,0,2.9124284549433e-12,0
125,NY2025:NYC:FOX_GREENWOOD,9114,9111,1,600,51.8976494395026,52.8232355700018,0,0,0.208569859206685,-360,360,0,0,0,0,2.91396166173375e-12,0
